88
isomere B
C         -1.435871   -1.247860   -1.197731    -0.370961
O         -0.198713   -0.677218   -0.741013    -0.291854
C         -0.286944    0.732162   -0.701503     0.068193
C         -1.452446    1.084616   -1.620528    -0.282937
C         -2.414485   -0.083783   -1.392563     0.336884
H         -1.823352   -1.917417   -0.422827     0.147031
H         -0.476960    1.072371    0.325323     0.108268
H         -1.072886    1.031641   -2.651758     0.152825
H         -3.087629   -0.266268   -2.235852     0.175890
O         -2.017591    2.340700   -1.356423    -0.553157
H         -1.293461    2.976861   -1.207084     0.425780
O          0.906427    1.284754   -1.170648    -0.322848
C          1.698491    2.037521   -0.271840    -0.049942
C          3.155924    1.583155   -0.362890    -0.110233
C          1.570370    3.515076   -0.612652     0.140465
H          1.343815    1.872885    0.754247     0.130759
C          4.045397    2.434025    0.554450     0.404389
H          3.503880    1.687011   -1.399019     0.155757
C          2.452679    4.380236    0.285878    -0.050530
H          1.881010    3.650061   -1.660922     0.143324
C          3.905720    3.915159    0.194492    -0.640804
H          3.668950    2.290448    1.582740     0.132041
H          2.094611    4.246185    1.314483     0.157393
H          4.290015    4.071687   -0.822070     0.165067
H          4.528972    4.518237    0.865405     0.143120
O          0.212812    3.908791   -0.474283    -0.618600
H          0.232927    4.879644   -0.410948     0.416925
N          2.195259    5.777276   -0.062429    -0.712181
H          2.468457    6.415344    0.676266     0.308706
H          2.685544    6.049442   -0.910112     0.300835
N          5.436770    2.023166    0.413555    -0.690449
H          6.050578    2.632754    0.943773     0.286320
H          5.577088    1.071162    0.743992     0.325789
C         -4.403445    0.755840   -0.367586     0.254907
C         -4.754967    1.435239    0.961016    -0.195860
H         -4.300223    1.503128   -1.157445     0.146073
C         -5.212870    0.399345    1.978186    -0.050513
H         -5.608536    2.093744    0.764629     0.161456
C         -6.007336   -1.058665    0.088352     0.039044
C         -6.384092   -0.374303    1.406398     0.150477
H         -4.388332   -0.290962    2.206856     0.155955
H         -6.922743   -1.364438   -0.423799     0.160086
H         -7.183465    0.351857    1.197015     0.137416
O         -3.165982    0.084590   -0.199718    -0.320966
O         -5.423692   -0.100597   -0.816505    -0.292270
O         -6.855015   -1.352924    2.314274    -0.534766
H         -6.986306   -0.912345    3.164535     0.376344
O         -5.647735    1.030369    3.170349    -0.567124
H         -5.013418    1.744564    3.341624     0.383222
N         -3.696308    2.242969    1.551789    -0.664939
H         -2.822357    1.726249    1.503923     0.322307
H         -3.550976    3.093073    1.017368     0.315049
C          4.171700   -0.619424   -0.543634     0.077344
C          3.514278   -1.797243   -1.263862     0.024129
H          4.792425   -0.057354   -1.243834     0.150347
C          2.835678   -2.719519   -0.250722    -0.016292
H          4.324915   -2.369490   -1.730991     0.150775
C          4.401678   -1.863109    1.483769     0.412884
C          3.854757   -3.117293    0.801775    -0.063213
H          1.998918   -2.190334    0.225914     0.175808
H          3.571689   -1.298180    1.925454     0.160997
H          4.681223   -3.641256    0.309864     0.162777
O          3.170507    0.214214    0.002218    -0.400410
N          2.667580   -1.283550   -2.322739    -0.678897
H          2.331734   -2.050739   -2.894588     0.311660
H          1.860364   -0.805620   -1.928845     0.349195
O          2.349044   -3.859123   -0.943942    -0.517457
H          2.104574   -4.511131   -0.273297     0.373731
O          3.221088   -3.989727    1.728926    -0.574949
H          3.906991   -4.521001    2.152268     0.382132
O          5.041017   -1.049452    0.487084    -0.346932
C          5.420990   -2.149919    2.573010    -0.403290
H          4.884942   -2.552166    3.437948     0.153527
H          5.856847   -1.187184    2.878768     0.134343
N          6.407222   -3.138863    2.144697    -0.713249
H          6.941867   -2.792848    1.353530     0.305178
H          7.062851   -3.350129    2.888723     0.297622
C         -1.146677   -2.039199   -2.470464    -0.084828
H         -0.869739   -1.358695   -3.281581     0.152244
H         -0.295509   -2.703202   -2.285348     0.167302
O         -2.293454   -2.755740   -2.904034    -0.534618
H         -2.285858   -3.640045   -2.522997     0.370042
C         -5.159866   -2.315142    0.254529    -0.144608
H         -4.193514   -2.061049    0.709919     0.139465
H         -5.694023   -2.963924    0.952535     0.167461
N         -5.046176   -3.004982   -1.025506    -0.652235
H         -4.464224   -2.499415   -1.685567     0.326329
H         -4.663769   -3.935852   -0.909336     0.278520
 
 
 